135410875
  -OEChem-05292310293D

 52 54  0     1  0  0  0  0  0999 V2000
   -2.5104    0.6308   -2.2296 O   0  0  0  0  0  0  0  0  0  0  0  0
    2.5602   -2.8944   -1.3049 O   0  0  0  0  0  0  0  0  0  0  0  0
    5.6534   -0.8438    2.1062 O   0  0  0  0  0  0  0  0  0  0  0  0
    3.5085   -0.7494    2.8415 O   0  0  0  0  0  0  0  0  0  0  0  0
    3.8211    3.6874   -0.8392 O   0  0  0  0  0  0  0  0  0  0  0  0
    5.0653    2.2728   -2.1033 O   0  0  0  0  0  0  0  0  0  0  0  0
   -4.0830    1.1949    2.0290 N   0  0  0  0  0  0  0  0  0  0  0  0
    2.5182   -1.3375    0.4136 N   0  0  0  0  0  0  0  0  0  0  0  0
   -1.8325    2.4762   -0.9835 N   0  0  0  0  0  0  0  0  0  0  0  0
   -2.5759    2.8911    1.2488 N   0  0  0  0  0  0  0  0  0  0  0  0
   -1.0889    4.3708    0.1923 N   0  0  0  0  0  0  0  0  0  0  0  0
   -4.5415   -1.3046   -0.6548 C   0  0  0  0  0  0  0  0  0  0  0  0
   -4.1806   -0.1545    0.2535 C   0  0  0  0  0  0  0  0  0  0  0  0
   -3.8111   -2.6138   -0.2961 C   0  0  0  0  0  0  0  0  0  0  0  0
   -3.3178    0.9242   -0.0359 C   0  0  0  0  0  0  0  0  0  0  0  0
   -2.3238   -2.5131   -0.3444 C   0  0  0  0  0  0  0  0  0  0  0  0
    3.9400   -1.1104    0.4719 C   0  0  1  0  0  0  0  0  0  0  0  0
   -3.2728    1.7427    1.0730 C   0  0  0  0  0  0  0  0  0  0  0  0
   -4.6416    0.0382    1.5402 C   0  0  0  0  0  0  0  0  0  0  0  0
    4.4010    0.0038   -0.4754 C   0  0  0  0  0  0  0  0  0  0  0  0
   -1.6443   -2.7936   -1.5299 C   0  0  0  0  0  0  0  0  0  0  0  0
   -1.6123   -2.1388    0.7955 C   0  0  0  0  0  0  0  0  0  0  0  0
    0.4581   -2.3252   -0.4356 C   0  0  0  0  0  0  0  0  0  0  0  0
   -2.5405    1.2873   -1.1951 C   0  0  0  0  0  0  0  0  0  0  0  0
    3.8323    1.4001   -0.1921 C   0  0  0  0  0  0  0  0  0  0  0  0
   -0.2535   -2.6996   -1.5755 C   0  0  0  0  0  0  0  0  0  0  0  0
   -0.2213   -2.0450    0.7499 C   0  0  0  0  0  0  0  0  0  0  0  0
    1.9394   -2.2242   -0.4840 C   0  0  0  0  0  0  0  0  0  0  0  0
    4.3073   -0.8715    1.9220 C   0  0  0  0  0  0  0  0  0  0  0  0
   -1.8609    3.2384    0.2033 C   0  0  0  0  0  0  0  0  0  0  0  0
    4.3079    2.4605   -1.1613 C   0  0  0  0  0  0  0  0  0  0  0  0
   -5.6235   -1.4762   -0.5896 H   0  0  0  0  0  0  0  0  0  0  0  0
   -4.3379   -1.0404   -1.6984 H   0  0  0  0  0  0  0  0  0  0  0  0
   -4.1496   -3.4053   -0.9775 H   0  0  0  0  0  0  0  0  0  0  0  0
   -4.1204   -2.9450    0.7046 H   0  0  0  0  0  0  0  0  0  0  0  0
    4.4319   -2.0459    0.1758 H   0  0  0  0  0  0  0  0  0  0  0  0
   -5.3158   -0.5428    2.1540 H   0  0  0  0  0  0  0  0  0  0  0  0
    5.4969    0.0650   -0.4482 H   0  0  0  0  0  0  0  0  0  0  0  0
    4.1412   -0.2757   -1.5051 H   0  0  0  0  0  0  0  0  0  0  0  0
   -4.2458    1.5784    2.9498 H   0  0  0  0  0  0  0  0  0  0  0  0
   -2.1877   -3.0824   -2.4257 H   0  0  0  0  0  0  0  0  0  0  0  0
   -2.1252   -1.9323    1.7310 H   0  0  0  0  0  0  0  0  0  0  0  0
    1.9350   -0.7566    1.0071 H   0  0  0  0  0  0  0  0  0  0  0  0
    4.1253    1.7172    0.8149 H   0  0  0  0  0  0  0  0  0  0  0  0
    2.7384    1.3710   -0.2475 H   0  0  0  0  0  0  0  0  0  0  0  0
    0.2572   -2.9166   -2.5100 H   0  0  0  0  0  0  0  0  0  0  0  0
    0.2956   -1.7824    1.6681 H   0  0  0  0  0  0  0  0  0  0  0  0
   -1.2526    2.8160   -1.7453 H   0  0  0  0  0  0  0  0  0  0  0  0
   -1.0440    4.9835    0.9992 H   0  0  0  0  0  0  0  0  0  0  0  0
   -0.5402    4.6291   -0.6205 H   0  0  0  0  0  0  0  0  0  0  0  0
    5.8904   -0.7049    3.0479 H   0  0  0  0  0  0  0  0  0  0  0  0
    4.1416    4.3809   -1.4546 H   0  0  0  0  0  0  0  0  0  0  0  0
  1 24  2  0  0  0  0
  2 28  2  0  0  0  0
  3 29  1  0  0  0  0
  3 51  1  0  0  0  0
  4 29  2  0  0  0  0
  5 31  1  0  0  0  0
  5 52  1  0  0  0  0
  6 31  2  0  0  0  0
  7 18  1  0  0  0  0
  7 19  1  0  0  0  0
  7 40  1  0  0  0  0
  8 17  1  0  0  0  0
  8 28  1  0  0  0  0
  8 43  1  0  0  0  0
  9 24  1  0  0  0  0
  9 30  1  0  0  0  0
  9 48  1  0  0  0  0
 10 18  1  0  0  0  0
 10 30  2  0  0  0  0
 11 30  1  0  0  0  0
 11 49  1  0  0  0  0
 11 50  1  0  0  0  0
 12 13  1  0  0  0  0
 12 14  1  0  0  0  0
 12 32  1  0  0  0  0
 12 33  1  0  0  0  0
 13 15  1  0  0  0  0
 13 19  2  0  0  0  0
 14 16  1  0  0  0  0
 14 34  1  0  0  0  0
 14 35  1  0  0  0  0
 15 18  2  0  0  0  0
 15 24  1  0  0  0  0
 16 21  2  0  0  0  0
 16 22  1  0  0  0  0
 17 20  1  0  0  0  0
 17 29  1  0  0  0  0
 17 36  1  0  0  0  0
 19 37  1  0  0  0  0
 20 25  1  0  0  0  0
 20 38  1  0  0  0  0
 20 39  1  0  0  0  0
 21 26  1  0  0  0  0
 21 41  1  0  0  0  0
 22 27  2  0  0  0  0
 22 42  1  0  0  0  0
 23 26  2  0  0  0  0
 23 27  1  0  0  0  0
 23 28  1  0  0  0  0
 25 31  1  0  0  0  0
 25 44  1  0  0  0  0
 25 45  1  0  0  0  0
 26 46  1  0  0  0  0
 27 47  1  0  0  0  0
M  END
> <PUBCHEM_COMPOUND_CID>
135410875

> <PUBCHEM_CONFORMER_RMSD>
1

> <PUBCHEM_CONFORMER_DIVERSEORDER>
1
120
123
144
21
110
116
20
140
147
101
112
43
44
106
65
76
154
54
17
111
81
136
133
12
2
57
78
31
113
60
48
100
22
52
9
152
70
151
72
102
115
108
99
66
131
64
56
155
75
141
126
47
61
88
92
23
146
4
129
91
80
6
51
157
14
104
30
53
103
15
86
97
73
16
74
82
148
135
24
10
79
153
90
55
37
93
67
117
42
122
11
19
142
8
58
46
71
134
156
107
138
77
35
7
109
38
125
32
18
49
121
68
96
5
34
149
69
26
87
29
3
94
130
84
128
28
158
124
137
83
45
39
27
127
118
119
40
13
114
95
150
59
63
139
85
105
143
98
36
132
41
50
62
145
25
33
89

> <PUBCHEM_MMFF94_PARTIAL_CHARGES>
42
1 -0.57
10 -0.58
11 -0.85
12 0.18
13 -0.18
14 0.14
15 -0.09
16 -0.14
17 0.36
18 -0.03
19 -0.3
2 -0.57
21 -0.15
22 -0.15
23 0.09
24 0.72
25 0.06
26 -0.15
27 -0.15
28 0.54
29 0.66
3 -0.65
30 0.56
31 0.66
37 0.15
4 -0.57
40 0.27
41 0.15
42 0.15
43 0.37
46 0.15
47 0.15
48 0.37
49 0.4
5 -0.65
50 0.4
51 0.5
52 0.5
6 -0.57
7 0.03
8 -0.73
9 -0.49

> <PUBCHEM_EFFECTIVE_ROTOR_COUNT>
10

> <PUBCHEM_PHARMACOPHORE_FEATURES>
16
1 1 acceptor
1 11 donor
1 2 acceptor
1 3 acceptor
1 4 acceptor
1 5 acceptor
1 6 acceptor
1 7 cation
1 7 donor
1 8 donor
1 9 donor
3 3 4 29 anion
3 5 6 31 anion
5 7 13 15 18 19 rings
6 16 21 22 23 26 27 rings
6 9 10 15 18 24 30 rings

> <PUBCHEM_HEAVY_ATOM_COUNT>
31

> <PUBCHEM_ATOM_DEF_STEREO_COUNT>
1

> <PUBCHEM_ATOM_UDEF_STEREO_COUNT>
0

> <PUBCHEM_BOND_DEF_STEREO_COUNT>
0

> <PUBCHEM_BOND_UDEF_STEREO_COUNT>
0

> <PUBCHEM_ISOTOPIC_ATOM_COUNT>
0

> <PUBCHEM_COMPONENT_COUNT>
1

> <PUBCHEM_CACTVS_TAUTO_COUNT>
-1

> <PUBCHEM_CONFORMER_ID>
081234BB00000001

> <PUBCHEM_MMFF94_ENERGY>
60.1377

> <PUBCHEM_FEATURE_SELFOVERLAP>
81.477

> <PUBCHEM_SHAPE_FINGERPRINT>
10670039 82 18343028821800400662
10871710 139 18125170582338956566
11595378 159 18261383391541953803
12596602 18 17530966920783329491
12633257 1 18334571317976842934
12788726 201 18338516455764885972
12978246 48 18338796715319028256
13583140 156 17313938598305600258
14840074 17 18263379104178241925
14950920 106 17675926486517926650
15001296 14 18265057005934961188
15021287 119 18041829620332132730
15274700 34 18041854887915430501
15297060 5 17916608495501497440
15975801 100 17750252343707433116
16067690 210 18260550034736573834
20764821 26 18199453536588283912
21623110 236 18410016559116757853
25019877 29 16629678591301465431
3729539 64 9511171890613777577
38570 142 17968958503848595526
392239 28 18335424539026377619
437795 70 17981922845278129764
445580 44 17603861148923001879
469060 322 18260828181551934291
508706 21 18269832012887416762
5895379 119 18340768153042675162
6287921 2 18055927506276960439
6608658 132 18199466752049731791
6700243 42 17269216229624895350

> <PUBCHEM_SHAPE_MULTIPOLES>
577.84
11.35
4.97
2.01
9.95
3.23
0.59
2.99
2.4
-0.39
-1.42
1.36
0
-2.84

> <PUBCHEM_SHAPE_SELFOVERLAP>
1241.994

> <PUBCHEM_SHAPE_VOLUME>
315.1

> <PUBCHEM_COORDINATE_TYPE>
2
5
10

$$$$
